Circuit: * D:\Repositories\ec-stingy\ecg_sim.asc

V1: Removing PWL point (0.359375,0.000164)
V1: Removing PWL point (0.371094,0.000163)
V1: Removing PWL point (0.390625,0.000164)
V1: Removing PWL point (0.425781,0.000165)
V1: Removing PWL point (0.460938,0.000166)
V1: Removing PWL point (1.18359,-7.1e-005)
V1: Removing PWL point (2.19531,-5.9e-005)
V1: Removing PWL point (2.22266,-5.8e-005)
V1: Removing PWL point (2.28906,-5e-005)
V1: Removing PWL point (2.31641,-4.7e-005)
V1: Removing PWL point (2.34375,-4.4e-005)
V1: Removing PWL point (2.35547,-4.3e-005)
V1: Removing PWL point (2.36719,-4.2e-005)
V1: Removing PWL point (2.37891,-4.1e-005)
V1: Removing PWL point (3.21484,-9.5e-005)
V1: Removing PWL point (3.25,-9.3e-005)
V1: Removing PWL point (3.26172,-9.2e-005)
V1: Removing PWL point (3.28125,-9e-005)
V1: Removing PWL point (3.29297,-8.9e-005)
V1: Removing PWL point (3.3125,-8.7e-005)
V1: Removing PWL point (3.33203,-8.5e-005)
V1: Removing PWL point (3.35156,-8.3e-005)
V1: Removing PWL point (3.36328,-8.2e-005)
V1: Removing PWL point (3.375,-8.1e-005)
V1: Removing PWL point (3.38672,-8e-005)
V1: Removing PWL point (4.20703,-7.3e-005)
V1: Removing PWL point (5.21094,3.1e-005)
V1: Removing PWL point (6.22266,1.7e-005)
V1: Removing PWL point (6.24609,1.7e-005)
V1: Removing PWL point (6.26953,1.8e-005)
V1: Removing PWL point (6.28516,1.9e-005)
V1: Removing PWL point (6.30859,2e-005)
V1: Removing PWL point (6.33203,2.1e-005)
V1: Removing PWL point (6.36328,2.2e-005)
V1: Removing PWL point (6.40234,2.3e-005)
V1: Removing PWL point (7.22266,-8.2e-005)
V1: Removing PWL point (7.24609,-8.1e-005)
V1: Removing PWL point (7.25781,-8e-005)
V1: Removing PWL point (7.26953,-7.9e-005)
V1: Removing PWL point (7.28125,-7.8e-005)
V1: Removing PWL point (7.29297,-7.7e-005)
V1: Removing PWL point (7.30469,-7.6e-005)
V1: Removing PWL point (7.31641,-7.5e-005)
V1: Removing PWL point (7.32813,-7.4e-005)
V1: Removing PWL point (7.33984,-7.3e-005)
V1: Removing PWL point (7.35156,-7.2e-005)
V1: Removing PWL point (7.36328,-7.1e-005)
V1: Removing PWL point (7.375,-7e-005)
V1: Removing PWL point (7.38672,-6.9e-005)
V1: Removing PWL point (7.39844,-6.8e-005)
V1: Removing PWL point (8.21484,-6.7e-005)
V1: Removing PWL point (9.21094,2.9e-005)
V1: Removing PWL point (10.2188,1.9e-005)
V1: Removing PWL point (10.2305,1.8e-005)
V1: Removing PWL point (10.2617,1.9e-005)
V1: Removing PWL point (10.2813,2e-005)
V1: Removing PWL point (10.3008,2.1e-005)
V1: Removing PWL point (10.3281,2.2e-005)
V1: Removing PWL point (10.3555,2.3e-005)
V1: Removing PWL point (10.3984,2.4e-005)
V1: Removing PWL point (11.2109,-7.7e-005)
V1: Removing PWL point (11.2422,-7.6e-005)
V1: Removing PWL point (11.2539,-7.5e-005)
V1: Removing PWL point (11.2656,-7.4e-005)
V1: Removing PWL point (11.2773,-7.3e-005)
V1: Removing PWL point (11.293,-7.2e-005)
V1: Removing PWL point (11.3047,-7.1e-005)
V1: Removing PWL point (11.3164,-7e-005)
V1: Removing PWL point (11.3281,-6.9e-005)
V1: Removing PWL point (11.3398,-6.8e-005)
V1: Removing PWL point (11.3633,-6.6e-005)
V1: Removing PWL point (11.375,-6.5e-005)
V1: Removing PWL point (11.3867,-6.4e-005)
V1: Removing PWL point (12.2031,-7.1e-005)
V1: Removing PWL point (13.2148,1.1e-005)
V1: Removing PWL point (14.25,5e-006)
V1: Removing PWL point (14.2617,4e-006)
V1: Removing PWL point (14.2813,5e-006)
V1: Removing PWL point (14.2969,6e-006)
V1: Removing PWL point (14.3125,7e-006)
V1: Removing PWL point (14.332,8e-006)
V1: Removing PWL point (14.3555,9e-006)
V1: Removing PWL point (14.375,1e-005)
V1: Removing PWL point (14.4063,1.1e-005)
V1: Removing PWL point (14.4375,1.2e-005)
V1: Removing PWL point (14.4492,1.3e-005)
V1: Removing PWL point (15.1914,9e-005)
V1: Removing PWL point (15.2031,8.9e-005)
V1: Removing PWL point (15.2148,8.8e-005)
V1: Removing PWL point (15.2266,8.7e-005)
V1: Removing PWL point (15.2383,8.6e-005)
V1: Removing PWL point (15.25,8.5e-005)
V1: Removing PWL point (15.2617,8.4e-005)
V1: Removing PWL point (15.2734,8.3e-005)
V1: Removing PWL point (15.2891,8.2e-005)
V1: Removing PWL point (15.3008,8.1e-005)
V1: Removing PWL point (15.3164,8e-005)
V1: Removing PWL point (15.8984,0.000327)
Direct Newton iteration for .op point succeeded.

Date: Tue Jul 05 02:42:59 2022
Total elapsed time: 0.665 seconds.

tnom = 27
temp = 27
method = modified trap
totiter = 328317
traniter = 328314
tranpoints = 164158
accept = 105217
rejected = 58941
matrix size = 6
fillins = 0
solver = Normal
Matrix Compiler1:      10 opcodes  0.1/[0.1]/0.1
Matrix Compiler2: off  [0.1]/0.1/0.1

